LTspice 24.1.4 for Windows
Circuit: D:\POWER ELECTRONIC\DC-DC Power Supply\FLYBACK-Converter\LTspice\flyback_100W.net
Start Time: Sun Jun 28 23:57:32 2026
solver = Normal
Maximum thread count: 12
tnom = 27
temp = 27
method = trap
Direct Newton iteration for .op point succeeded.
Total elapsed time: 4.713 seconds.

Files loaded:
D:\POWER ELECTRONIC\DC-DC Power Supply\FLYBACK-Converter\LTspice\flyback_100W.net
C:\Users\phearon\AppData\Local\LTspice\lib\cmp\standard.dio
C:\Users\phearon\AppData\Local\LTspice\lib\cmp\standard.mos

