LTspice 24.1.4 for Windows
Circuit: D:\Electronic_Year4\Power Electronic 2\DC-DC Power Supply\Full_Bridge_Converter\Simulation\LTspice\full_bridge_v2.net
Start Time: Fri Apr  4 23:11:22 2025
solver = Normal
Maximum thread count: 12
tnom = 27
temp = 27
method = trap
gmin = 1e-09
abstol = 1e-09
Direct Newton iteration for .op point succeeded.

Simulation stopped by user.
Total elapsed time: 5.352 seconds.

Files loaded:
D:\Electronic_Year4\Power Electronic 2\DC-DC Power Supply\Full_Bridge_Converter\Simulation\LTspice\full_bridge_v2.net
C:\Users\phearon\AppData\Local\LTspice\lib\cmp\standard.dio
C:\Users\phearon\AppData\Local\LTspice\lib\cmp\standard.mos

